5

H  2.675830e+00  5.432000e-02  1.151450e+00  0.01  -0.01  -1.9999
H  9.324100e-01  8.932500e-01  2.314510e+00  -0.05  0.05  -1.0001
H  1.234240e+00  4.314200e-01  3.968930e+00  0.014  -0.014  0.0
H  4.426360e+00  2.345100e-01  4.969050e+00  -0.00003  0.00003  1.3
H  3.000230e+00  5.555600e-01  5.986930e+00  0.007  -0.007  2.1
