5

Si 0.5 0.4 0.5
Si 0.5 0.6 0.5
Li 0.5 0.5 0.4
Li 0.5 0.5 0.6
Li 0.5 0.7 0.5
5

Si 0.5 0.4 0.5
Si 0.5 0.6 0.5
Li 0.5 0.5 0.4
Li 0.5 0.5 0.6
Li 0.5 0.7 0.5
5

Si 0.5 0.4 0.5
Si 0.5 0.6 0.5
Li 0.5 0.5 0.4
Li 0.5 0.5 0.6
Li 0.5 0.7 0.5
5

Si 0.5 0.4 0.5
Si 0.5 0.6 0.5
Li 0.5 0.5 0.4
Li 0.5 0.5 0.6
Li 0.5 0.7 0.5
5

Si 0.5 0.4 0.5
Si 0.5 0.6 0.5
Li 0.5 0.5 0.4
Li 0.5 0.5 0.6
Li 0.5 0.7 0.5

